[OPTIONS]
FLOW_UNITS CFS
INFILTRATION HORTON
FLOW_ROUTING KINWAVE
LINK_OFFSETS DEPTH
MIN_SLOPE 0
ALLOW_PONDING NO
SKIP_STEADY_STATE NO
START_DATE 06/01/2020
START_TIME 00:00:00
REPORT_START_DATE 06/01/2020
REPORT_START_TIME 00:00:00
END_DATE 06/03/2020
END_TIME 00:00:00
SWEEP_START 01/01
SWEEP_END 12/31
DRY_DAYS 0
REPORT_STEP 00:01:00
WET_STEP 00:01:00
DRY_STEP 01:00:00
ROUTING_STEP 0:00:10
RULE_STEP 00:00:00
INERTIAL_DAMPING PARTIAL
NORMAL_FLOW_LIMITED BOTH
FORCE_MAIN_EQUATION H-W
VARIABLE_STEP 0.75
LENGTHENING_STEP 0
MIN_SURFAREA 12.566
MAX_TRIALS 8
HEAD_TOLERANCE 0.005
SYS_FLOW_TOL 5
LAT_FLOW_TOL 5
MINIMUM_STEP 0.5
THREADS 1

[FILES]
SAVE OUTFLOWS "outflow.txt"
USE INFLOWS C:/Users/User/Documents/swmm_gi_toolbox/example/example1/routing_interface.txt

[EVAPORATION]
CONSTANT 0.0
DRY_ONLY NO

[RAINGAGES]
G1 INTENSITY 00:06 1 TIMESERIES TS1

[SUBCATCHMENTS]
S1 G1 J1 0.25 100 115 0.5 0 

[SUBAREAS]
S1 0.01 0.1 0.05 0.05 25 OUTLET 

[INFILTRATION]
S1 3 0.5 4 7 0

[JUNCTIONS]
J1 2.5 0 0 0 0

[OUTFALLS]
O1 -1 FREE  NO 

[CONDUITS]
C1 J1 O1 100 0.01 0 0 0 0

[XSECTIONS]
C1 CIRCULAR 0.5 0 0 0 1 

[TIMESERIES]
TS1 0:00 0.023622 
TS1 0:06 0.023622 
TS1 0:12 0.023622 
TS1 0:18 0.023622 
TS1 0:24 0.023622 
TS1 0:30 0.023622 
TS1 0:36 0.023622 
TS1 0:42 0.023622 
TS1 0:48 0.023622 
TS1 0:54 0.023622 
TS1 1:00 0.023622 
TS1 1:06 0.023622 
TS1 1:12 0.023622 
TS1 1:18 0.023622 
TS1 1:24 0.023622 
TS1 1:30 0.023622 
TS1 1:36 0.023622 
TS1 1:42 0.023622 
TS1 1:48 0.023622 
TS1 1:54 0.023622 
TS1  2:00 0.02385822
TS1  2:06 0.02409444
TS1  2:12 0.02456688
TS1 2:18 0.0248031 
TS1  2:24 0.02527554
TS1  2:30 0.02551176
TS1 2:36 0.0259842 
TS1  2:42 0.02622042
TS1  2:48 0.02669286
TS1  2:54 0.02692908
TS1  3:00 0.02740152
TS1  3:06 0.02763774
TS1  3:12 0.02811018
TS1 3:18 0.0283464 
TS1  3:24 0.02881884
TS1  3:30 0.02905506
TS1 3:36 0.0295275 
TS1  3:42 0.02976372
TS1  3:48 0.03023616
TS1  3:54 0.03047238
TS1  4:00 0.03094482
TS1  4:06 0.03118104
TS1  4:12 0.03165348
TS1 4:18 0.0318897 
TS1  4:24 0.03236214
TS1  4:30 0.03259836
TS1 4:36 0.0330708 
TS1  4:42 0.03330702
TS1  4:48 0.03377946
TS1  4:54 0.03401568
TS1  5:00 0.03448812
TS1  5:06 0.03472434
TS1  5:12 0.03519678
TS1 5:18 0.035433 
TS1  5:24 0.03590544
TS1  5:30 0.03614166
TS1 5:36 0.0366141 
TS1  5:42 0.03685032
TS1  5:48 0.03732276
TS1  5:54 0.03755898
TS1  6:00 0.03850386
TS1  6:06 0.03944874
TS1  6:12 0.04086606
TS1  6:18 0.04181094
TS1  6:24 0.04322826
TS1  6:30 0.04417314
TS1  6:36 0.04559046
TS1  6:42 0.04653534
TS1  6:48 0.04795266
TS1  6:54 0.04889754
TS1  7:00 0.05031486
TS1  7:06 0.05125974
TS1  7:12 0.05267706
TS1  7:18 0.05362194
TS1  7:24 0.05503926
TS1  7:30 0.05598414
TS1  7:36 0.05740146
TS1  7:42 0.05834634
TS1  7:48 0.05976366
TS1  7:54 0.06070854
TS1  8:00 0.06283452
TS1  8:06 0.06543294
TS1  8:12 0.06826758
TS1 8:18 0.070866 
TS1  8:24 0.07370064
TS1  8:30 0.07629906
TS1 8:36 0.0791337 
TS1  8:42 0.08173212
TS1  8:48 0.08456676
TS1  8:54 0.08716518
TS1  9:00 0.08999982
TS1  9:06 0.09259824
TS1  9:12 0.09543288
TS1 9:18 0.0980313 
TS1  9:24 0.10086594
TS1  9:30 0.10346436
TS1 9:36 0.106299 
TS1  9:42 0.10889742
TS1  9:48 0.11173206
TS1  9:54 0.11433048
TS1  10:00 0.11858244
TS1  10:06 0.12425172
TS1 10:12 0.129921 
TS1  10:18 0.13559028
TS1  10:24 0.14125956
TS1  10:30 0.14692884
TS1  10:36 0.15259812
TS1 10:42 0.1582674 
TS1  10:48 0.16393668
TS1  10:54 0.16960596
TS1  11:00 0.18330672
TS1  11:06 0.20503896
TS1 11:12 0.2267712 
TS1  11:18 0.24850344
TS1  11:24 0.27023568
TS1 11:30 0.3850386 
TS1 11:36 0.5929122 
TS1 11:42 0.8007858 
TS1 11:48 1.0086594 
TS1 11:54 1.984248 
TS1 12:00 1.984248 
TS1 12:06 1.0086594 
TS1 12:12 0.8007858 
TS1 12:18 0.5929122 
TS1 12:24 0.3850386 
TS1  12:30 0.27023568
TS1  12:36 0.24850344
TS1 12:42 0.2267712 
TS1  12:48 0.20503896
TS1  12:54 0.18330672
TS1  13:00 0.16960596
TS1  13:06 0.16393668
TS1 13:12 0.1582674 
TS1  13:18 0.15259812
TS1  13:24 0.14692884
TS1  13:30 0.14125956
TS1  13:36 0.13559028
TS1 13:42 0.129921 
TS1  13:48 0.12425172
TS1  13:54 0.11858244
TS1  14:00 0.11433048
TS1  14:06 0.11173206
TS1  14:12 0.10889742
TS1 14:18 0.106299 
TS1  14:24 0.10346436
TS1  14:30 0.10086594
TS1 14:36 0.0980313 
TS1  14:42 0.09543288
TS1  14:48 0.09259824
TS1  14:54 0.08999982
TS1  15:00 0.08716518
TS1  15:06 0.08456676
TS1  15:12 0.08173212
TS1 15:18 0.0791337 
TS1  15:24 0.07629906
TS1  15:30 0.07370064
TS1 15:36 0.070866 
TS1  15:42 0.06826758
TS1  15:48 0.06543294
TS1  15:54 0.06283452
TS1  16:00 0.06094476
TS1  16:06 0.05952744
TS1  16:12 0.05858256
TS1  16:18 0.05716524
TS1  16:24 0.05622036
TS1  16:30 0.05480304
TS1  16:36 0.05385816
TS1  16:42 0.05244084
TS1  16:48 0.05149596
TS1  16:54 0.05007864
TS1  17:00 0.04913376
TS1  17:06 0.04771644
TS1  17:12 0.04677156
TS1  17:18 0.04535424
TS1  17:24 0.04440936
TS1  17:30 0.04299204
TS1  17:36 0.04204716
TS1  17:42 0.04062984
TS1  17:48 0.03968496
TS1  17:54 0.03826764
TS1  18:00 0.03755898
TS1  18:06 0.03732276
TS1  18:12 0.03685032
TS1 18:18 0.0366141 
TS1  18:24 0.03614166
TS1  18:30 0.03590544
TS1 18:36 0.035433 
TS1  18:42 0.03519678
TS1  18:48 0.03472434
TS1  18:54 0.03448812
TS1  19:00 0.03401568
TS1  19:06 0.03377946
TS1  19:12 0.03330702
TS1 19:18 0.0330708 
TS1  19:24 0.03259836
TS1  19:30 0.03236214
TS1 19:36 0.0318897 
TS1  19:42 0.03165348
TS1  19:48 0.03118104
TS1  19:54 0.03094482
TS1  20:00 0.03047238
TS1  20:06 0.03047238
TS1  20:12 0.02999994
TS1  20:18 0.02976372
TS1 20:24 0.0295275 
TS1  20:30 0.02929128
TS1  20:36 0.02881884
TS1  20:42 0.02881884
TS1 20:48 0.0283464 
TS1 20:54 0.0283464 
TS1  21:00 0.02787396
TS1  21:06 0.02763774
TS1  21:12 0.02740152
TS1 21:18 0.0271653 
TS1  21:24 0.02669286
TS1  21:30 0.02669286
TS1  21:36 0.02622042
TS1  21:42 0.02622042
TS1  21:48 0.02574798
TS1  21:54 0.02551176
TS1  22:00 0.02527554
TS1  22:06 0.02503932
TS1  22:12 0.02456688
TS1  22:18 0.02456688
TS1  22:24 0.02409444
TS1  22:30 0.02409444
TS1 22:36 0.023622 
TS1  22:42 0.02338578
TS1  22:48 0.02314956
TS1  22:54 0.02291334
TS1 23:00 0.0224409 
TS1 23:06 0.0224409 
TS1  23:12 0.02196846
TS1  23:18 0.02196846
TS1  23:24 0.02149602
TS1 23:30 0.0212598 
TS1  23:36 0.02102358
TS1  23:42 0.02078736
TS1  23:48 0.02031492
TS1  23:54 0.02031492

[REPORT]
SUBCATCHMENTS ALL
NODES ALL
LINKS ALL

[MAP]
DIMENSIONS 0.000 0.000 10000.000 10000.000
Units None

[COORDINATES]
J1 1724.524 6237.402
O1 3662.597 4950.055

[POLYGONS]
S1 1986.301 7219.801
S1 2061.021 5252.179
S1 -280.199 5252.179
S1 -330.012 7282.067

[SYMBOLS]
G1 2876.712 8244.085

